          50

C    -5.0986815988E+00     2.4593280381E+02     2.0469450189E+02
C    -2.3835565358E+02     5.9319574218E+02     1.8226066547E+02
C    -6.2454621211E+02    -8.1753516967E+01    -4.8513357495E+02
C    -6.1671352119E+02     1.8827398106E+02     3.1990710076E+02
C     2.0006188986E+02    -5.4457403266E+02    -4.9801192573E+02
C     3.0090248865E+02    -3.7265781113E+02    -1.1596375007E+02
C     5.3311450131E+02    -2.9803588805E+01     2.0400774260E+02
C     1.1830182257E+02    -2.9455655008E+02    -3.5119332567E+02
C    -2.8272219651E+02     2.9542844268E+02     4.7516754698E+02
C     2.3136179317E+02    -2.9452023797E+02     5.2019290780E+02
C     5.0505524122E+02     2.1109451890E+02     1.4155178248E+02
C    -4.2617494194E+02     5.7289488061E+02    -2.7501983933E+02
C    -1.3871034769E+02     2.4314209160E+02    -5.8161227781E+02
C     6.0542137252E+02     3.1220982701E+02     6.0740411776E+01
C     6.9193374006E+02    -4.6435147795E+01     3.6666350574E+02
C    -6.8718277046E+02     3.5450227649E+02     2.7003255790E+01
C     1.0392385040E+02    -6.5465917687E+02    -1.2138851805E+02
C     6.8485490749E+02     1.4641868995E+02     2.2675070840E+02
C     7.0468711209E+02    -3.0361085215E+00     2.9381841424E+02
C     3.6564668862E+02    -4.1831854045E+02     4.3766435764E+01
C    -5.9865280524E+02     3.1550382664E+02    -4.3826596526E+00
C    -1.0165753641E+02     2.9857938928E+02    -2.8479701063E+02
C    -1.2323649460E+01    -1.7161932672E+02    -1.7046641653E+01
C     2.0001080124E+02     5.1613079905E+02     5.0219526904E+02
C     4.8197316628E+02     4.5357473459E+01     1.8264982211E+02
C     4.3556010471E+02    -2.7678298115E+02    -4.9097514155E+02
C     2.3325604000E+02    -7.3833533970E+02     1.6177850644E+02
C    -2.5447884511E+02    -5.3102102678E+02     3.4729742817E+02
C    -2.6227371254E+02     3.7670338116E+02    -2.2418270281E+02
C    -1.3716331158E+02    -5.6873106541E+02     6.6231102148E+01
C    -3.6756427386E+02     2.8973792385E+02    -5.9225481833E+02
C    -5.2352556553E+02    -4.0581113945E+02     3.1073223956E+02
C    -3.8878883827E+02    -1.0296995521E+02     6.4875573171E+02
C     3.2209351442E+02    -5.2614540509E+02    -6.2383294152E+01
C    -3.4500695457E+02     8.2500344553E+01     4.0592915687E+02
C     1.9082736922E+01    -4.0524446199E+02     6.1275798748E+02
C    -1.9809770644E+02    -6.1804341940E+02    -2.2077968258E+02
C     1.7848990163E+02    -5.6389247304E+02     8.0149313619E+01
C    -1.5150722620E+02     4.3398657331E+02    -5.0093838605E+02
C     5.9399421551E+02    -2.7343709236E+02     4.5032456624E+02
C     2.2278109808E+02    -3.0325473423E+02     4.9066333601E+02
C     4.9495713151E+02     8.8758051968E+01     1.8240398842E+02
C     6.4953946235E+02     8.8369822233E+01     4.1294755730E+02
C     5.4370515817E+02     4.5520463351E+02    -1.2067583871E+02
C     7.8282160239E+02    -1.4156894546E+02    -3.2628157454E+01
C     4.6230953546E+01    -1.6255671638E+02    -5.7452580917E+02
C     1.8606406140E+02     3.5056396416E+01    -1.8130164886E+02
C    -4.0720296566E+01    -5.1256967774E+02    -4.6792258136E+02
C     5.7889295984E+02     1.7778281818E+01     4.6838594070E+02
C     4.6074512065E+02     3.4837585069E+02     3.9889022025E+02
